
  4
atom         x         y         z      color  color_light  
  Pd   0.00000  -1.25800   0.00000   0x0000aa     0x8989ff
  Pd   0.00000   1.25800   0.00000   0x0000aa     0x8989ff
   C   1.43700   0.00000   0.00000   0xff0000     0xff8989
   O   2.61700   0.00000   0.00000   0xdddd00     0xffff89
